data/interim/rawx/ieee14_rev35.rawx
{"general": {"version": "35.0"}, "network": {"caseid": {"fields": ["ic", "sbase", "rev", "xfrrat", "nxfrat", "basfrq", "title1", "title2"], "data": [0, 100.0, 35, 0, 1, 60.0, "08/19/93 UW ARCHIVE           100.0  1962 W", "IEEE 14 BUS TEST CASE"]}, "general": {"fields": ["thrshz", "pqbrak", "blowup", "maxisollvls", "camaxreptsln", "chkdupcntlbl"], "data": [0.0001, 0.7, 5.0, 4, 20, 0]}, "gauss": {"fields": ["itmx", "accp", "accq", "accm", "tol"], "data": [100, 1.6, 1.6, 1.0, 0.0001]}, "newton": {"fields": ["itmxn", "accn", "toln", "vctolq", "vctolv", "dvlim", "ndvfct"], "data": [20, 1.0, 0.1, 0.1, 1e-05, 0.99, 0.99]}, "adjust": {"fields": ["adjthr", "acctap", "taplim", "swvbnd", "mxtpss", "mxswim"], "data": [0.005, 1.0, 0, 100.0, 99, 10]}, "tysl": {"fields": ["itmxty", "accty", "tolty"], "data": [20, 1.0, 1e-05]}, "rating": {"fields": ["irate", "name", "desc"], "data": [[1, "RATE1", "RATING SET 1"], [2, "RATE2", "RATING SET 2"], [3, "RATE3", "RATING SET 3"], [4, "RATE4", "RATING SET 4"], [5, "RATE5", "RATING SET 5"], [6, "RATE6", "RATING SET 6"], [7, "RATE7", "RATING SET 7"], [8, "RATE8", "RATING SET 8"], [9, "RATE9", "RATING SET 9"], [10, "RATE10", "RATING SET 10"], [11, "RATE11", "RATING SET 11"], [12, "RATE12", "RATING SET 12"]]}, "swdratnam": {"fields": ["irate", "rnam", "rtyp", "unit", "desc"], "data": [[1, "RATE1", 0, "MVA", "SWD RATING SET 1"], [2, "RATE2", 0, "MVA", "SWD RATING SET 2"], [3, "RATE3", 0, "MVA", "SWD RATING SET 3"], [4, "RATE4", 0, "MVA", "SWD RATING SET 4"], [5, "RATE5", 0, "MVA", "SWD RATING SET 5"], [6, "RATE6", 0, "MVA", "SWD RATING SET 6"], [7, "RATE7", 0, "MVA", "SWD RATING SET 7"], [8, "RATE8", 0, "MVA", "SWD RATING SET 8"], [9, "RATE9", 0, "MVA", "SWD RATING SET 9"], [10, "RATE10", 0, "MVA", "SWD RATING SET 10"], [11, "RATE11", 0, "MVA", "SWD RATING SET 11"], [12, "RATE12", 0, "MVA", "SWD RATING SET 12"]]}, "bus": {"fields": ["ibus", "name", "baskv", "ide", "area", "zone", "owner", "vm", "va", "nvhi", "nvlo", "evhi", "evlo"], "data": [[1, "BUS1", 69.0, 3, 1, 1, 1, 1.03, 0.0, 1.05, 0.95, 1.1, 0.9], [2, "BUS2", 69.0, 2, 2, 1, 1, 1.00703, -5.4252, 1.05, 0.95, 1.1, 0.9], [3, "BUS3", 69.0, 2, 1, 1, 1, 0.98642, -14.0964, 1.05, 0.95, 1.1, 0.9], [4, "BUS4", 69.0, 1, 1, 1, 1, 0.98296, -11.4766, 1.05, 0.95, 1.1, 0.9], [5, "BUS5", 69.0, 1, 1, 1, 1, 0.98726, -9.8326, 1.05, 0.95, 1.1, 0.9], [6, "BUS6", 138.0, 2, 2, 2, 2, 0.99268, -16.924, 1.05, 0.95, 1.1, 0.9], [7, "BUS7", 138.0, 1, 2, 2, 2, 0.99524, -15.3445, 1.05, 0.95, 1.1, 0.9], [8, "BUS8", 69.0, 2, 2, 2, 2, 1.03605, -15.3445, 1.05, 0.95, 1.1, 0.9], [9, "BUS9", 138.0, 1, 2, 2, 2, 0.97802, -17.3886, 1.05, 0.95, 1.1, 0.9], [10, "BUS10", 138.0, 1, 2, 2, 2, 0.97265, -17.639, 1.05, 0.95, 1.1, 0.9], [11, "BUS11", 138.0, 1, 2, 2, 2, 0.97886, -17.4318, 1.05, 0.95, 1.1, 0.9], [12, "BUS12", 138.0, 1, 2, 2, 2, 0.97777, -17.9818, 1.05, 0.95, 1.1, 0.9], [13, "BUS13", 138.0, 1, 2, 2, 2, 0.97325, -18.164, 1.05, 0.95, 1.1, 0.9], [14, "BUS14", 138.0, 1, 2, 2, 2, 0.9639, -19.6821, 1.05, 0.95, 1.1, 0.9]]}, "load": {"fields": ["ibus", "loadid", "stat", "area", "zone", "pl", "ql", "ip", "iq", "yp", "yq", "owner", "scale", "intrpt", "dgenp", "dgenq", "dgenm", "loadtype", "name"], "data": [[2, "1", 1, 1, 1, 21.7, 12.7, 0.0, 0.0, 0.0, 0.0, 1, 1, 0, 0.0, 0.0, 0, "", ""], [3, "1", 1, 1, 1, 94.2, 19.0, 0.0, 0.0, 0.0, 0.0, 1, 1, 0, 0.0, 0.0, 0, "", ""], [4, "1", 1, 1, 1, 47.8, -3.9, 0.0, 0.0, 0.0, 0.0, 1, 1, 0, 0.0, 0.0, 0, "", ""], [5, "1", 1, 1, 1, 7.6, 1.6, 0.0, 0.0, 0.0, 0.0, 1, 1, 0, 0.0, 0.0, 0, "", ""], [6, "1", 1, 2, 2, 15.0, 7.5, 0.0, 0.0, 0.0, 0.0, 2, 1, 0, 0.0, 0.0, 0, "", ""], [9, "1", 1, 2, 2, 29.5, 16.6, 0.0, 0.0, 0.0, 0.0, 2, 1, 0, 0.0, 0.0, 0, "", ""], [10, "1", 1, 2, 2, 9.0, 5.8, 0.0, 0.0, 0.0, 0.0, 2, 1, 0, 0.0, 0.0, 0, "", ""], [11, "1", 1, 2, 2, 3.5, 1.8, 0.0, 0.0, 0.0, 0.0, 2, 1, 0, 0.0, 0.0, 0, "", ""], [12, "1", 1, 2, 2, 6.1, 1.6, 0.0, 0.0, 0.0, 0.0, 2, 1, 0, 0.0, 0.0, 0, "", ""], [13, "1", 1, 2, 2, 13.5, 5.8, 0.0, 0.0, 0.0, 0.0, 2, 1, 0, 0.0, 0.0, 0, "", ""], [14, "1", 1, 2, 2, 20.0, 7.0, 0.0, 0.0, 0.0, 0.0, 2, 1, 0, 0.0, 0.0, 0, "", ""]]}, "fixshunt": {"fields": ["ibus", "shntid", "stat", "gl", "bl", "name"], "data": []}, "voltagedroop": {"fields": ["name", "status", "regbus", "qdb", "qmin", "qmax", "vdblow", "vdbhigh", "vlow", "vhigh"], "data": []}, "generator": {"fields": ["ibus", "machid", "pg", "qg", "qt", "qb", "vs", "ireg", "nreg", "mbase", "zr", "zx", "rt", "xt", "gtap", "stat", "rmpct", "pt", "pb", "baslod", "o1", "f1", "o2", "f2", "o3", "f3", "o4", "f4", "wmod", "wpf", "droopname", "name"], "data": [[1, "1", 243.419, -4.082, 100.0, -50.0, 1.03, 1, 0, 320.0, 0.0, 0.23, 0.0, 0.0, 1.0, 1, 100.0, 300.0, 50.0, 0, 1, 1.0, null, null, null, null, null, null, null, null, null, null], [2, "1", 40.0, 20.0, 20.0, -40.0, 1.03, 2, 0, 55.0, 0.0, 0.28, 0.0, 0.0, 1.0, 1, 100.0, 50.0, 10.0, 0, 1, 1.0, null, null, null, null, null, null, null, null, null, null], [3, "1", 0.0, 40.0, 40.0, -10.0, 1.01, 3, 0, 50.0, 0.0, 0.34, 0.0, 0.0, 1.0, 1, 100.0, 50.0, 10.0, 0, 1, 1.0, null, null, null, null, null, null, null, null, null, null], [6, "1", 0.0, 24.0, 24.0, -6.0, 1.3, 6, 0, 30.0, 0.0, 0.28, 0.0, 0.0, 1.0, 1, 100.0, 50.0, 10.0, 0, 1, 1.0, null, null, null, null, null, null, null, null, null, null], [8, "1", 0.0, 24.0, 24.0, -6.0, 1.09, 8, 0, 30.0, 0.0, 0.34, 0.0, 0.0, 1.0, 1, 100.0, 50.0, 10.0, 0, 1, 1.0, null, null, null, null, null, null, null, null, null, null]]}, "swdratset": {"fields": ["rsetnam", "desc", "rate1", "rate2", "rate3", "rate4", "rate5", "rate6", "rate7", "rate8", "rate9", "rate10", "rate11", "rate12"], "data": []}, "acline": {"fields": ["ibus", "jbus", "ckt", "rpu", "xpu", "bpu", "name", "rate1", "rate2", "rate3", "rate4", "rate5", "rate6", "rate7", "rate8", "rate9", "rate10", "rate11", "rate12", "gi", "bi", "gj", "bj", "stat", "bp", "met", "len", "o1", "f1", "o2", "f2", "o3", "f3", "o4", "f4"], "data": [[1, 2, "1", 0.01938, 0.05917, 0.0528, "", 0.0, 0.0, 0.0, 0.0, 0.0, 0.0, 0.0, 0.0, 0.0, 0.0, 0.0, 0.0, 0.0, 0.0, 0.0, 0.0, 1, 0, 1, 0.0, 1, 1.0, null, null, null, null, null, null], [1, 5, "1", 0.05403, 0.22304, 0.0492, "", 0.0, 0.0, 0.0, 0.0, 0.0, 0.0, 0.0, 0.0, 0.0, 0.0, 0.0, 0.0, 0.0, 0.0, 0.0, 0.0, 1, 0, 1, 0.0, 1, 1.0, null, null, null, null, null, null], [2, 3, "1", 0.04699, 0.19797, 0.0438, "", 0.0, 0.0, 0.0, 0.0, 0.0, 0.0, 0.0, 0.0, 0.0, 0.0, 0.0, 0.0, 0.0, 0.0, 0.0, 0.0, 1, 0, 1, 0.0, 1, 1.0, null, null, null, null, null, null], [2, 4, "1", 0.05811, 0.17632, 0.034, "", 0.0, 0.0, 0.0, 0.0, 0.0, 0.0, 0.0, 0.0, 0.0, 0.0, 0.0, 0.0, 0.0, 0.0, 0.0, 0.0, 1, 0, 1, 0.0, 1, 1.0, null, null, null, null, null, null], [2, 5, "1", 0.05695, 0.17388, 0.0346, "", 0.0, 0.0, 0.0, 0.0, 0.0, 0.0, 0.0, 0.0, 0.0, 0.0, 0.0, 0.0, 0.0, 0.0, 0.0, 0.0, 1, 0, 1, 0.0, 1, 1.0, null, null, null, null, null, null], [3, 4, "1", 0.06701, 0.17103, 0.0128, "", 0.0, 0.0, 0.0, 0.0, 0.0, 0.0, 0.0, 0.0, 0.0, 0.0, 0.0, 0.0, 0.0, 0.0, 0.0, 0.0, 1, 0, 1, 0.0, 1, 1.0, null, null, null, null, null, null], [4, 5, "1", 0.01335, 0.04211, 0.0, "", 0.0, 0.0, 0.0, 0.0, 0.0, 0.0, 0.0, 0.0, 0.0, 0.0, 0.0, 0.0, 0.0, 0.0, 0.0, 0.0, 1, 0, 1, 0.0, 1, 1.0, null, null, null, null, null, null], [4, 7, "1", 0.0, 0.20912, 0.0, "", 0.0, 0.0, 0.0, 0.0, 0.0, 0.0, 0.0, 0.0, 0.0, 0.0, 0.0, 0.0, 0.0, 0.0, 0.0, 0.0, 1, 0, 1, 0.0, 1, 1.0, null, null, null, null, null, null], [4, 9, "1", 0.0, 0.55618, 0.0, "", 0.0, 0.0, 0.0, 0.0, 0.0, 0.0, 0.0, 0.0, 0.0, 0.0, 0.0, 0.0, 0.0, 0.0, 0.0, 0.0, 1, 0, 1, 0.0, 1, 1.0, null, null, null, null, null, null], [5, 6, "1", 0.0, 0.25202, 0.0, "", 0.0, 0.0, 0.0, 0.0, 0.0, 0.0, 0.0, 0.0, 0.0, 0.0, 0.0, 0.0, 0.0, 0.0, 0.0, 0.0, 1, 0, 1, 0.0, 1, 1.0, null, null, null, null, null, null], [6, 11, "1", 0.09498, 0.1989, 0.0, "", 0.0, 0.0, 0.0, 0.0, 0.0, 0.0, 0.0, 0.0, 0.0, 0.0, 0.0, 0.0, 0.0, 0.0, 0.0, 0.0, 1, 0, 1, 0.0, 1, 1.0, null, null, null, null, null, null], [6, 12, "1", 0.12291, 0.25581, 0.0, "", 0.0, 0.0, 0.0, 0.0, 0.0, 0.0, 0.0, 0.0, 0.0, 0.0, 0.0, 0.0, 0.0, 0.0, 0.0, 0.0, 1, 0, 1, 0.0, 1, 1.0, null, null, null, null, null, null], [6, 13, "1", 0.06615, 0.13027, 0.0, "", 0.0, 0.0, 0.0, 0.0, 0.0, 0.0, 0.0, 0.0, 0.0, 0.0, 0.0, 0.0, 0.0, 0.0, 0.0, 0.0, 1, 0, 1, 0.0, 1, 1.0, null, null, null, null, null, null], [7, 8, "1", 0.0, 0.17615, 0.0, "", 0.0, 0.0, 0.0, 0.0, 0.0, 0.0, 0.0, 0.0, 0.0, 0.0, 0.0, 0.0, 0.0, 0.0, 0.0, 0.0, 1, 0, 1, 0.0, 1, 1.0, null, null, null, null, null, null], [7, 9, "1", 0.0, 0.11001, 0.0, "", 0.0, 0.0, 0.0, 0.0, 0.0, 0.0, 0.0, 0.0, 0.0, 0.0, 0.0, 0.0, 0.0, 0.0, 0.0, 0.0, 1, 0, 1, 0.0, 1, 1.0, null, null, null, null, null, null], [9, 10, "1", 0.03181, 0.0845, 0.0, "", 0.0, 0.0, 0.0, 0.0, 0.0, 0.0, 0.0, 0.0, 0.0, 0.0, 0.0, 0.0, 0.0, 0.0, 0.0, 0.0, 1, 0, 1, 0.0, 1, 1.0, null, null, null, null, null, null], [9, 14, "1", 0.12711, 0.27038, 0.0, "", 0.0, 0.0, 0.0, 0.0, 0.0, 0.0, 0.0, 0.0, 0.0, 0.0, 0.0, 0.0, 0.0, 0.0, 0.0, 0.0, 1, 0, 1, 0.0, 1, 1.0, null, null, null, null, null, null], [10, 11, "1", 0.08205, 0.19207, 0.0, "", 0.0, 0.0, 0.0, 0.0, 0.0, 0.0, 0.0, 0.0, 0.0, 0.0, 0.0, 0.0, 0.0, 0.0, 0.0, 0.0, 1, 0, 1, 0.0, 1, 1.0, null, null, null, null, null, null], [12, 13, "1", 0.22092, 0.19988, 0.0, "", 0.0, 0.0, 0.0, 0.0, 0.0, 0.0, 0.0, 0.0, 0.0, 0.0, 0.0, 0.0, 0.0, 0.0, 0.0, 0.0, 1, 0, 1, 0.0, 1, 1.0, null, null, null, null, null, null], [13, 14, "1", 0.17093, 0.34802, 0.0, "", 0.0, 0.0, 0.0, 0.0, 0.0, 0.0, 0.0, 0.0, 0.0, 0.0, 0.0, 0.0, 0.0, 0.0, 0.0, 0.0, 1, 0, 1, 0.0, 1, 1.0, null, null, null, null, null, null]]}, "sysswd": {"fields": ["ibus", "jbus", "ckt", "xpu", "rsetnam", "stat", "nstat", "met", "stype", "name"], "data": []}, "transformer": {"fields": ["ibus", "jbus", "kbus", "ckt", "cw", "cz", "cm", "mag1", "mag2", "nmet", "name", "stat", "o1", "f1", "o2", "f2", "o3", "f3", "o4", "f4", "vecgrp", "zcod", "r1_2", "x1_2", "sbase1_2", "r2_3", "x2_3", "sbase2_3", "r3_1", "x3_1", "sbase3_1", "vmstar", "anstar", "windv1", "nomv1", "ang1", "wdg1rate1", "wdg1rate2", "wdg1rate3", "wdg1rate4", "wdg1rate5", "wdg1rate6", "wdg1rate7", "wdg1rate8", "wdg1rate9", "wdg1rate10", "wdg1rate11", "wdg1rate12", "cod1", "cont1", "node1", "rma1", "rmi1", "vma1", "vmi1", "ntp1", "tab1", "cr1", "cx1", "cnxa1", "windv2", "nomv2", "ang2", "wdg2rate1", "wdg2rate2", "wdg2rate3", "wdg2rate4", "wdg2rate5", "wdg2rate6", "wdg2rate7", "wdg2rate8", "wdg2rate9", "wdg2rate10", "wdg2rate11", "wdg2rate12", "cod2", "cont2", "node2", "rma2", "rmi2", "vma2", "vmi2", "ntp2", "tab2", "cr2", "cx2", "cnxa2", "windv3", "nomv3", "ang3", "wdg3rate1", "wdg3rate2", "wdg3rate3", "wdg3rate4", "wdg3rate5", "wdg3rate6", "wdg3rate7", "wdg3rate8", "wdg3rate9", "wdg3rate10", "wdg3rate11", "wdg3rate12", "cod3", "cont3", "node3", "rma3", "rmi3", "vma3", "vmi3", "ntp3", "tab3", "cr3", "cx3", "cnxa3"], "data": []}, "area": {"fields": ["iarea", "isw", "pdes", "ptol", "arname"], "data": [[1, 1, 0.0, 999.99, "AREA1"], [2, 2, 0.0, 10.0, "AREA2"]]}, "twotermdc": {"fields": ["name", "mdc", "rdc", "setvl", "vschd", "vcmod", "rcomp", "delti", "met", "dcvmin", "cccitmx", "cccacc", "ipr", "nbr", "anmxr", "anmnr", "rcr", "xcr", "ebasr", "trr", "tapr", "tmxr", "tmnr", "stpr", "icr", "ndr", "ifr", "itr", "idr", "xcapr", "ipi", "nbi", "anmxi", "anmni", "rci", "xci", "ebasi", "tri", "tapi", "tmxi", "tmni", "stpi", "ici", "ndi", "ifi", "iti", "idi", "xcapi"], "data": []}, "vscdc": {"fields": ["name", "mdc", "rdc", "o1", "f1", "o2", "f2", "o3", "f3", "o4", "f4", "ibus1", "type1", "mode1", "dcset1", "acset1", "aloss1", "bloss1", "minloss1", "smax1", "imax1", "pwf1", "maxq1", "minq1", "vsreg1", "nreg1", "rmpct1", "ibus2", "type2", "mode2", "dcset2", "acset2", "aloss2", "bloss2", "minloss2", "smax2", "imax2", "pwf2", "maxq2", "minq2", "vsreg2", "nreg2", "rmpct2"], "data": []}, "impcor": {"fields": ["itable", "tap", "refact", "imfact"], "data": []}, "ntermdc": {"fields": ["name", "nconv", "ndcbs", "ndcln", "mdc", "vconv", "vcmod", "vconvn"], "data": []}, "ntermdcconv": {"fields": ["name", "ib", "nbrdg", "angmx", "angmn", "rc", "xc", "ebas", "tr", "tap", "tpmx", "tpmn", "tstp", "setvl", "dcpf", "marg", "cnvcod"], "data": []}, "ntermdcbus": {"fields": ["name", "idc", "ib", "area", "zone", "dcname", "idc2", "rgrnd", "owner"], "data": []}, "ntermdclink": {"fields": ["name", "idc", "jdc", "dcckt", "met", "rdc", "ldc"], "data": []}, "msline": {"fields": ["ibus", "jbus", "mslid", "met", "dum1", "dum2", "dum3", "dum4", "dum5", "dum6", "dum7", "dum8", "dum9"], "data": []}, "zone": {"fields": ["izone", "zoname"], "data": [[1, "ZONE1"], [2, "ZONE2"]]}, "iatrans": {"fields": ["arfrom", "arto", "trid", "ptran"], "data": []}, "owner": {"fields": ["iowner", "owname"], "data": [[1, "OWNER1"], [2, "OWNER2"]]}, "facts": {"fields": ["name", "ibus", "jbus", "mode", "pdes", "qdes", "vset", "shmx", "trmx", "vtmn", "vtmx", "vsmx", "imx", "linx", "rmpct", "owner", "set1", "set2", "vsref", "fcreg", "nreg", "mname"], "data": []}, "swshunt": {"fields": ["ibus", "shntid", "modsw", "adjm", "stat", "vswhi", "vswlo", "swreg", "nreg", "rmpct", "rmidnt", "binit", "name", "s1", "n1", "b1", "s2", "n2", "b2", "s3", "n3", "b3", "s4", "n4", "b4", "s5", "n5", "b5", "s6", "n6", "b6", "s7", "n7", "b7", "s8", "n8", "b8"], "data": [[9, "1", 1, 0, 1, 1.025, 0.96, 9, 0, 100.0, "", 5.0, "", 1, 3, 5.0, 1, 1, 4.0, null, null, null, null, null, null, null, null, null, null, null, null, null, null, null, null, null, null], [14, "1", 1, 0, 1, 1.025, 0.96, 14, 0, 100.0, "", 10.0, "", 1, 3, 5.0, null, null, null, null, null, null, null, null, null, null, null, null, null, null, null, null, null, null, null, null, null]]}, "gne": {"fields": ["name", "model", "nterm", "bus1", "bus2", "nreal", "nintg", "nchar", "stat", "owner", "nmet", "real1", "real2", "real3", "real4", "real5", "real6", "real7", "real8", "real9", "real10", "intg1", "intg2", "intg3", "intg4", "intg5", "intg6", "intg7", "intg8", "intg9", "intg10", "char1", "char2", "char3", "char4", "char5", "char6", "char7", "char8", "char9", "char10"], "data": []}, "indmach": {"fields": ["ibus", "imid", "stat", "sc", "dc", "area", "zone", "owner", "name", "tc", "bc", "mbase", "ratekv", "pcode", "pset", "hconst", "aconst", "bconst", "dconst", "econst", "ra", "xa", "xm", "r1", "x1", "r2", "x2", "x3", "e1", "se1", "e2", "se2", "ia1", "ia2", "xamult"], "data": []}, "loadtype": {"fields": ["name", "desc"], "data": []}, "interface": {"fields": ["name", "inum", "type", "ratmax1", "ratmax2", "ratmax3", "ratmax4", "ratmax5", "ratmax6", "ratmax7", "ratmax8", "ratmax9", "ratmax10", "ratmax11", "ratmax12", "ratmin1", "ratmin2", "ratmin3", "ratmin4", "ratmin5", "ratmin6", "ratmin7", "ratmin8", "ratmin9", "ratmin10", "ratmin11", "ratmin12"], "data": []}, "itfelmt": {"fields": ["name", "type", "inum", "jnum", "knum", "namid", "dirctn", "imet", "weight"], "data": []}, "sub": {"fields": ["isub", "name", "lati", "long", "srg"], "data": []}, "subnode": {"fields": ["isub", "inode", "name", "ibus", "stat", "vm", "va"], "data": []}, "subswd": {"fields": ["isub", "inode", "jnode", "swdid", "name", "type", "stat", "nstat", "xpu", "rsetnam"], "data": []}, "subterm": {"fields": ["isub", "inode", "type", "eqid", "ibus", "jbus", "kbus"], "data": []}}, "timeseries": {}, "harmonics": {}}